OpenDSS/ckt5_Power_elem_kVA.txt

CIRCUIT ELEMENT POWER FLOW

(Power Flow into element from indicated Bus)

Power Delivery Elements

  Bus                          Phase     kW     +j   kvar         kVA         PF

ELEMENT = "Vsource.SOURCE"
SOURCEBUS                          1     -2543.3 +j  -1179.4     2803.5       0.9072
SOURCEBUS                          2     -2463.8 +j  -1298.6     2785.1       0.8846
SOURCEBUS                          3     -2400.3 +j  -1170.1     2670.3       0.8989
   TERMINAL TOTAL ...................... -7407.4 +j  -3648.0     8256.9       0.8971
SOURCEBUS                          0         0.0 +j      0.0        0.0       1.0000
SOURCEBUS                          0         0.0 +j      0.0        0.0       1.0000
SOURCEBUS                          0         0.0 +j      0.0        0.0       1.0000
   TERMINAL TOTAL ......................     0.0 +j      0.0        0.0       1.0000



ELEMENT = "Line.MDV201_CONNECTOR"
_MDV_SUB_1_LSB                     1      2395.8 +j   1075.0     2625.9       0.9124
_MDV_SUB_1_LSB                     2      2624.1 +j   1115.8     2851.5       0.9203
_MDV_SUB_1_LSB                     3      2346.4 +j   1025.2     2560.6       0.9163
   TERMINAL TOTAL ......................  7366.3 +j   3215.9     8037.7       0.9165
MDV201                             1     -2395.8 +j  -1075.0     2625.9       0.9124
MDV201                             2     -2624.1 +j  -1115.8     2851.5       0.9203
MDV201                             3     -2346.4 +j  -1025.2     2560.6       0.9163
   TERMINAL TOTAL ...................... -7366.3 +j  -3215.9     8037.7       0.9165


ELEMENT = "Line.MDV201_HN_1_275_A94744"
94743                              1         6.2 +j      2.6        6.7       0.9188
   TERMINAL TOTAL ......................     6.2 +j      2.6        6.7       0.9188
94744                              1        -6.2 +j     -2.7        6.7       0.9183
   TERMINAL TOTAL ......................    -6.2 +j     -2.7        6.7       0.9183

ELEMENT = "Line.MDV201_HN_2_466_C62235"
62244                              3       130.2 +j     53.5      140.7       0.9248
   TERMINAL TOTAL ......................   130.2 +j     53.5      140.7       0.9248
62235                              3      -130.1 +j    -53.5      140.7       0.9248
   TERMINAL TOTAL ......................  -130.1 +j    -53.5      140.7       0.9248

ELEMENT = "Line.MDV201_DA_8_780_A1144234"
1144235                            1        16.6 +j      7.1       18.1       0.9188
   TERMINAL TOTAL ......................    16.6 +j      7.1       18.1       0.9188
1144234                            1       -16.6 +j     -7.1       18.1       0.9185
   TERMINAL TOTAL ......................   -16.6 +j     -7.1       18.1       0.9185

ELEMENT = "Line.MDV201_1160486ELB-1_SW"
39754                              2        49.1 +j     19.4       52.8       0.9300
   TERMINAL TOTAL ......................    49.1 +j     19.4       52.8       0.9300
MDV201_1160486ELB_INT              2       -49.1 +j    -19.4       52.8       0.9300
   TERMINAL TOTAL ......................   -49.1 +j    -19.4       52.8       0.9300

ELEMENT = "Line.MDV201_1160486ELB"
MDV201_1160486ELB_INT              2        49.1 +j     19.4       52.8       0.9300
   TERMINAL TOTAL ......................    49.1 +j     19.4       52.8       0.9300
1160486                            2       -49.1 +j    -19.4       52.8       0.9300
   TERMINAL TOTAL ......................   -49.1 +j    -19.4       52.8       0.9300

ELEMENT = "Line.MDV201_HN_2P009_B1160473"
1160476                            2       184.0 +j     73.1      198.0       0.9294
   TERMINAL TOTAL ......................   184.0 +j     73.1      198.0       0.9294
1160473                            2      -184.0 +j    -73.1      198.0       0.9293
   TERMINAL TOTAL ......................  -184.0 +j    -73.1      198.0       0.9293

ELEMENT = "Line.MDV201_HN_2_088_ABC8164"
8163                               1       579.7 +j    254.9      633.3       0.9154
8163                               2       393.7 +j    157.3      423.9       0.9286
8163                               3       850.4 +j    353.3      920.9       0.9235
   TERMINAL TOTAL ......................  1823.8 +j    765.4     1977.9       0.9221
8164                               1      -579.6 +j   -254.6      633.1       0.9156
8164                               2      -393.5 +j   -157.3      423.8       0.9286
8164                               3      -849.9 +j   -352.5      920.1       0.9237
   TERMINAL TOTAL ...................... -1823.1 +j   -764.3     1976.8       0.9222

ELEMENT = "Line.MDV201_HN_2_319_B39610"
103730                             2        10.4 +j      4.1       11.2       0.9288
   TERMINAL TOTAL ......................    10.4 +j      4.1       11.2       0.9288
39610                              2       -10.4 +j     -4.1       11.2       0.9287
   TERMINAL TOTAL ......................   -10.4 +j     -4.1       11.2       0.9287

ELEMENT = "Line.MDV201_HN_2_417_A842"
835                                1        82.2 +j     35.5       89.5       0.9182
   TERMINAL TOTAL ......................    82.2 +j     35.5       89.5       0.9182
842                                1       -82.2 +j    -35.5       89.5       0.9182
   TERMINAL TOTAL ......................   -82.2 +j    -35.5       89.5       0.9182



ELEMENT = "Line.MDV201_HN_2_941_B39760"
39775                              2        37.8 +j     15.1       40.7       0.9286
   TERMINAL TOTAL ......................    37.8 +j     15.1       40.7       0.9286
39760                              2       -37.8 +j    -15.1       40.7       0.9286
   TERMINAL TOTAL ......................   -37.8 +j    -15.1       40.7       0.9286

ELEMENT = "Line.MDV201_1160480ELB-1_SW"
15004                              2       138.6 +j     55.1      149.1       0.9293
   TERMINAL TOTAL ......................   138.6 +j     55.1      149.1       0.9293
MDV201_1160480ELB_INT              2      -138.6 +j    -55.1      149.1       0.9293
   TERMINAL TOTAL ......................  -138.6 +j    -55.1      149.1       0.9293

ELEMENT = "Line.MDV201_1160480ELB"
MDV201_1160480ELB_INT              2       138.6 +j     55.1      149.1       0.9293
   TERMINAL TOTAL ......................   138.6 +j     55.1      149.1       0.9293
1160480                            2      -138.6 +j    -55.1      149.1       0.9293
   TERMINAL TOTAL ......................  -138.6 +j    -55.1      149.1       0.9293

ELEMENT = "Line.C_1P034_SW"
1160492                            1        73.7 +j     31.7       80.2       0.9186
   TERMINAL TOTAL ......................    73.7 +j     31.7       80.2       0.9186
MDV201_8088ELB_INT                 1       -73.7 +j    -31.7       80.2       0.9186
   TERMINAL TOTAL ......................   -73.7 +j    -31.7       80.2       0.9186

ELEMENT = "Line.MDV201_8088ELB"
MDV201_8088ELB_INT                 1        73.7 +j     31.7       80.2       0.9186
   TERMINAL TOTAL ......................    73.7 +j     31.7       80.2       0.9186
8088                               1       -73.7 +j    -31.7       80.2       0.9186
   TERMINAL TOTAL ......................   -73.7 +j    -31.7       80.2       0.9186

ELEMENT = "Line.MDV201_HN_2_499_ABC834"
829                                1       725.5 +j    311.7      789.6       0.9188
829                                2       952.7 +j    384.9     1027.5       0.9272
829                                3       680.0 +j    281.9      736.1       0.9238
   TERMINAL TOTAL ......................  2358.2 +j    978.5     2553.2       0.9236
834                                1      -724.7 +j   -311.3      788.8       0.9188
834                                2      -951.6 +j   -384.0     1026.1       0.9274
834                                3      -679.7 +j   -281.4      735.6       0.9239
   TERMINAL TOTAL ...................... -2356.0 +j   -976.7     2550.4       0.9238

ELEMENT = "Line.MDV201_1160478ELB-1_SW"
15005                              2       102.1 +j     40.5      109.8       0.9296
   TERMINAL TOTAL ......................   102.1 +j     40.5      109.8       0.9296
MDV201_1160478ELB_INT              2      -102.1 +j    -40.5      109.8       0.9296
   TERMINAL TOTAL ......................  -102.1 +j    -40.5      109.8       0.9296

ELEMENT = "Line.MDV201_1160478ELB"
MDV201_1160478ELB_INT              2       102.1 +j     40.5      109.8       0.9296
   TERMINAL TOTAL ......................   102.1 +j     40.5      109.8       0.9296
1160478                            2      -102.1 +j    -40.5      109.8       0.9296
   TERMINAL TOTAL ......................  -102.1 +j    -40.5      109.8       0.9296

ELEMENT = "Line.MDV201_HN_2_217_ABC8160"
44582                              1       579.8 +j    255.4      633.6       0.9151
44582                              2       423.4 +j    169.0      455.9       0.9287
44582                              3       935.7 +j    389.3     1013.4       0.9233
   TERMINAL TOTAL ......................  1939.0 +j    813.8     2102.8       0.9221
8160                               1      -579.8 +j   -255.3      633.5       0.9152
8160                               2      -423.4 +j   -169.0      455.9       0.9287
8160                               3      -935.5 +j   -389.0     1013.2       0.9233
   TERMINAL TOTAL ...................... -1938.7 +j   -813.4     2102.4       0.9221

ELEMENT = "Line.MDV201_HN_2_942_C89791"
89783                              3       107.3 +j     44.3      116.1       0.9245
   TERMINAL TOTAL ......................   107.3 +j     44.3      116.1       0.9245
89791                              3      -107.3 +j    -44.3      116.0       0.9244
   TERMINAL TOTAL ......................  -107.3 +j    -44.3      116.0       0.9244

ELEMENT = "Line.MDV201_99422FUSE"
6584                               1       134.6 +j     58.3      146.7       0.9178
   TERMINAL TOTAL ......................   134.6 +j     58.3      146.7       0.9178
99422                              1      -134.6 +j    -58.3      146.7       0.9178
   TERMINAL TOTAL ......................  -134.6 +j    -58.3      146.7       0.9178

ELEMENT = "Line.MDV201_HN_2_140_ABC8124"
8113                               1       146.2 +j     63.6      159.4       0.9171
8113                               2         9.4 +j      3.7       10.1       0.9305
8113                               3        71.8 +j     29.5       77.6       0.9249
   TERMINAL TOTAL ......................   227.4 +j     96.8      247.1       0.9201
8124                               1      -146.2 +j    -63.6      159.4       0.9171
8124                               2        -9.4 +j     -3.7       10.1       0.9301
8124                               3       -71.8 +j    -29.5       77.6       0.9248
   TERMINAL TOTAL ......................  -227.4 +j    -96.8      247.1       0.9201

ELEMENT = "Line.MDV201_HN_2_818_ABC63707"
14880                              1       105.3 +j     45.3      114.6       0.9187
14880                              2       650.2 +j    264.0      701.8       0.9265
14880                              3       127.3 +j     52.6      137.8       0.9243
   TERMINAL TOTAL ......................   882.8 +j    361.9      954.1       0.9253
63707                              1      -105.3 +j    -45.3      114.6       0.9186
63707                              2      -650.0 +j   -263.7      701.4       0.9266
63707                              3      -127.4 +j    -52.6      137.8       0.9243
   TERMINAL TOTAL ......................  -882.6 +j   -361.6      953.8       0.9254

ELEMENT = "Line.MDV201_DA_8_731_C74450"
74449                              3        15.6 +j      6.4       16.9       0.9249
   TERMINAL TOTAL ......................    15.6 +j      6.4       16.9       0.9249
74450                              3       -15.6 +j     -6.4       16.9       0.9248
   TERMINAL TOTAL ......................   -15.6 +j     -6.4       16.9       0.9248

ELEMENT = "Line.MDV201_100494FUSE"
14989                              2         8.3 +j      3.4        9.0       0.9269
   TERMINAL TOTAL ......................     8.3 +j      3.4        9.0       0.9269
100494                             2        -8.3 +j     -3.4        9.0       0.9268
   TERMINAL TOTAL ......................    -8.3 +j     -3.4        9.0       0.9268

ELEMENT = "Line.MDV201_107110FUSE"
63683                              1       248.6 +j    107.5      270.9       0.9178
63683                              3       126.5 +j     52.3      136.9       0.9242
   TERMINAL TOTAL ......................   375.1 +j    159.8      407.7       0.9200
107110                             1      -248.6 +j   -107.5      270.9       0.9178
107110                             3      -126.5 +j    -52.3      136.9       0.9242
   TERMINAL TOTAL ......................  -375.1 +j   -159.8      407.7       0.9200

ELEMENT = "Line.MDV201_HN_2_477_C8121"
1144242                            3        60.1 +j     24.8       65.0       0.9246
   TERMINAL TOTAL ......................    60.1 +j     24.8       65.0       0.9246
8121                               3       -60.1 +j    -24.8       65.0       0.9246
   TERMINAL TOTAL ......................   -60.1 +j    -24.8       65.0       0.9246

ELEMENT = "Line.MDV201_HN_2_876_C63671"
63668                              3       103.5 +j     42.7      112.0       0.9245
   TERMINAL TOTAL ......................   103.5 +j     42.7      112.0       0.9245
63671                              3      -103.5 +j    -42.7      112.0       0.9245
   TERMINAL TOTAL ......................  -103.5 +j    -42.7      112.0       0.9245

ELEMENT = "Line.MDV201_HN_2_671_C89781"
89784                              3       268.7 +j    111.2      290.8       0.9240
   TERMINAL TOTAL ......................   268.7 +j    111.2      290.8       0.9240
89781                              3      -268.7 +j   -111.1      290.7       0.9241
   TERMINAL TOTAL ......................  -268.7 +j   -111.1      290.7       0.9241

ELEMENT = "Line.MDV201_DA_8_930_A39751"
39734                              1        50.9 +j     22.0       55.4       0.9179
   TERMINAL TOTAL ......................    50.9 +j     22.0       55.4       0.9179
39751                              1       -50.9 +j    -22.0       55.4       0.9179
   TERMINAL TOTAL ......................   -50.9 +j    -22.0       55.4       0.9179

ELEMENT = "Line.MDV201_HN_2_394_ABC63658"
63657                              1      1533.7 +j    665.2     1671.8       0.9174
63657                              2      2100.7 +j    861.3     2270.4       0.9253
63657                              3      1402.3 +j    586.2     1519.9       0.9226
   TERMINAL TOTAL ......................  5036.7 +j   2112.7     5461.9       0.9222
63658                              1     -1533.2 +j   -664.6     1671.0       0.9175
63658                              2     -2100.2 +j   -859.4     2269.2       0.9255
63658                              3     -1402.5 +j   -585.6     1519.8       0.9228
   TERMINAL TOTAL ...................... -5035.8 +j  -2109.6     5459.8       0.9223

ELEMENT = "Line.MDV201_DA_8_687_B74448"
74445                              2       171.4 +j     68.4      184.5       0.9288
   TERMINAL TOTAL ......................   171.4 +j     68.4      184.5       0.9288
74448                              2      -171.4 +j    -68.4      184.5       0.9288
   TERMINAL TOTAL ......................  -171.4 +j    -68.4      184.5       0.9288

ELEMENT = "Line.MDV201_1012643FUSE"
1012641                            3         4.2 +j      1.6        4.5       0.9318
   TERMINAL TOTAL ......................     4.2 +j      1.6        4.5       0.9318
1012643                            3        -4.2 +j     -1.6        4.5       0.9318
   TERMINAL TOTAL ......................    -4.2 +j     -1.6        4.5       0.9318

ELEMENT = "Line.MDV201_HN_1_238_A39569"
39570                              1        15.0 +j      6.5       16.3       0.9187
   TERMINAL TOTAL ......................    15.0 +j      6.5       16.3       0.9187
39569                              1       -15.0 +j     -6.5       16.4       0.9185
   TERMINAL TOTAL ......................   -15.0 +j     -6.5       16.4       0.9185

ELEMENT = "Line.MDV201_14869FUSE"
14858                              1       106.3 +j     45.9      115.8       0.9181
   TERMINAL TOTAL ......................   106.3 +j     45.9      115.8       0.9181
14869                              1      -106.3 +j    -45.9      115.8       0.9181
   TERMINAL TOTAL ......................  -106.3 +j    -45.9      115.8       0.9181

ELEMENT = "Line.MDV201_HN_1_156_C89790"
89796                              3        12.3 +j      5.0       13.3       0.9257
   TERMINAL TOTAL ......................    12.3 +j      5.0       13.3       0.9257
89790                              3       -12.3 +j     -5.0       13.3       0.9253
   TERMINAL TOTAL ......................   -12.3 +j     -5.0       13.3       0.9253

ELEMENT = "Line.MDV201_HN_2_318_C28272"
28271                              3        10.0 +j      4.1       10.8       0.9251
   TERMINAL TOTAL ......................    10.0 +j      4.1       10.8       0.9251
28272                              3       -10.0 +j     -4.1       10.8       0.9248
   TERMINAL TOTAL ......................   -10.0 +j     -4.1       10.8       0.9248

ELEMENT = "Line.MDV201_C_1_140_ABC69477"
69478                              1        -0.0 +j     -0.0        0.0       0.0833
69478                              2         0.6 +j      0.2        0.7       0.9367
69478                              3         0.0 +j     -0.0        0.0      -0.1075
   TERMINAL TOTAL ......................     0.6 +j      0.1        0.6       0.9735
69477                              1         0.0 +j      0.0        0.0       0.0839
69477                              2        -0.6 +j     -0.3        0.7       0.9243
69477                              3        -0.0 +j      0.0        0.0      -0.1078
   TERMINAL TOTAL ......................    -0.6 +j     -0.2        0.7       0.9445

ELEMENT = "Line.MDV201_HN_2_948_C8176"
8175                               3        20.8 +j      8.6       22.6       0.9244
   TERMINAL TOTAL ......................    20.8 +j      8.6       22.6       0.9244
8176                               3       -20.8 +j     -8.6       22.6       0.9243
   TERMINAL TOTAL ......................   -20.8 +j     -8.6       22.6       0.9243

ELEMENT = "Line.MDV201_1144230FUSE"
8184                               1        47.9 +j     20.6       52.1       0.9184
   TERMINAL TOTAL ......................    47.9 +j     20.6       52.1       0.9184
1144230                            1       -47.9 +j    -20.6       52.1       0.9184
   TERMINAL TOTAL ......................   -47.9 +j    -20.6       52.1       0.9184

ELEMENT = "Line.MDV201_HN_2_105_ABC39582"
39595                              1       164.7 +j     71.1      179.4       0.9182
39595                              2       472.4 +j    189.0      508.8       0.9285
39595                              3       235.7 +j     97.7      255.1       0.9238
   TERMINAL TOTAL ......................   872.8 +j    357.7      943.3       0.9253
39582                              1      -164.7 +j    -71.1      179.4       0.9181
39582                              2      -472.1 +j   -188.7      508.5       0.9286
39582                              3      -235.7 +j    -97.6      255.1       0.9238
   TERMINAL TOTAL ......................  -872.5 +j   -357.4      942.9       0.9254

ELEMENT = "Line.MDV201_DA_8_691_B46386"
46385                              2       103.9 +j     41.4      111.8       0.9289
   TERMINAL TOTAL ......................   103.9 +j     41.4      111.8       0.9289
46386                              2      -103.9 +j    -41.4      111.8       0.9289
   TERMINAL TOTAL ......................  -103.9 +j    -41.4      111.8       0.9289

ELEMENT = "Line.MDV201_HN_2_457_C62244"
106884                             3       137.9 +j     56.7      149.1       0.9248
   TERMINAL TOTAL ......................   137.9 +j     56.7      149.1       0.9248
62244                              3      -137.9 +j    -56.7      149.1       0.9248
   TERMINAL TOTAL ......................  -137.9 +j    -56.7      149.1       0.9248

ELEMENT = "Line.C_1P038_SW"
1160493                            1       145.8 +j     62.5      158.7       0.9191
   TERMINAL TOTAL ......................   145.8 +j     62.5      158.7       0.9191
MDV201_8075ELB_INT                 1      -145.8 +j    -62.5      158.7       0.9191
   TERMINAL TOTAL ......................  -145.8 +j    -62.5      158.7       0.9191

ELEMENT = "Line.MDV201_8075ELB"
MDV201_8075ELB_INT                 1       145.8 +j     62.5      158.7       0.9191
   TERMINAL TOTAL ......................   145.8 +j     62.5      158.7       0.9191
8075                               1      -145.8 +j    -62.5      158.7       0.9191
   TERMINAL TOTAL ......................  -145.8 +j    -62.5      158.7       0.9191

ELEMENT = "Line.C_1P032_SW"
69460                              1        20.9 +j      9.0       22.8       0.9181
   TERMINAL TOTAL ......................    20.9 +j      9.0       22.8       0.9181
MDV201_107997ELB_INT               1       -20.9 +j     -9.0       22.8       0.9181
   TERMINAL TOTAL ......................   -20.9 +j     -9.0       22.8       0.9181

ELEMENT = "Line.MDV201_107997ELB"
MDV201_107997ELB_INT               1        20.9 +j      9.0       22.8       0.9181
   TERMINAL TOTAL ......................    20.9 +j      9.0       22.8       0.9181
107997                             1       -20.9 +j     -9.0       22.8       0.9181
   TERMINAL TOTAL ......................   -20.9 +j     -9.0       22.8       0.9181

ELEMENT = "Line.MDV201_HN_2_949_C8180"
8176                               3        20.8 +j      8.6       22.6       0.9243
   TERMINAL TOTAL ......................    20.8 +j      8.6       22.6       0.9243
8180                               3       -20.8 +j     -8.6       22.6       0.9242
   TERMINAL TOTAL ......................   -20.8 +j     -8.6       22.6       0.9242

ELEMENT = "Line.MDV201_C_1P024_A8100"
1160461                            1       134.9 +j     57.5      146.7       0.9199
   TERMINAL TOTAL ......................   134.9 +j     57.5      146.7       0.9199
8100                               1      -134.9 +j    -57.7      146.7       0.9195
   TERMINAL TOTAL ......................  -134.9 +j    -57.7      146.7       0.9195

ELEMENT = "Line.MDV201_HN_2_166_C33824"
39776                              3        34.7 +j     14.3       37.5       0.9246
   TERMINAL TOTAL ......................    34.7 +j     14.3       37.5       0.9246
33824                              3       -34.7 +j    -14.3       37.5       0.9245
   TERMINAL TOTAL ......................   -34.7 +j    -14.3       37.5       0.9245

ELEMENT = "Line.MDV201_HN_2_827_A14873"
1140227                            1        18.5 +j      8.0       20.1       0.9178
   TERMINAL TOTAL ......................    18.5 +j      8.0       20.1       0.9178
14873                              1       -18.5 +j     -8.0       20.1       0.9177
   TERMINAL TOTAL ......................   -18.5 +j     -8.0       20.1       0.9177

ELEMENT = "Line.HN_2P017_SW"
1160488                            2        10.0 +j      4.0       10.8       0.9290
   TERMINAL TOTAL ......................    10.0 +j      4.0       10.8       0.9290
MDV201_62249ELB_INT                2       -10.0 +j     -4.0       10.8       0.9290
   TERMINAL TOTAL ......................   -10.0 +j     -4.0       10.8       0.9290

ELEMENT = "Line.MDV201_62249ELB"
MDV201_62249ELB_INT                2        10.0 +j      4.0       10.8       0.9290
   TERMINAL TOTAL ......................    10.0 +j      4.0       10.8       0.9290
62249                              2       -10.0 +j     -4.0       10.8       0.9290
   TERMINAL TOTAL ......................   -10.0 +j     -4.0       10.8       0.9290

ELEMENT = "Line.MDV201_HN_2_397_B63634"
107106                             2       108.4 +j     43.2      116.7       0.9289
   TERMINAL TOTAL ......................   108.4 +j     43.2      116.7       0.9289
63634                              2      -108.4 +j    -43.2      116.7       0.9289
   TERMINAL TOTAL ......................  -108.4 +j    -43.2      116.7       0.9289

ELEMENT = "Line.MDV201_C_1P037_A1160467"
1160494                            1       127.2 +j     54.4      138.3       0.9193
   TERMINAL TOTAL ......................   127.2 +j     54.4      138.3       0.9193
1160467                            1      -127.2 +j    -54.5      138.3       0.9192
   TERMINAL TOTAL ......................  -127.2 +j    -54.5      138.3       0.9192

ELEMENT = "Line.MDV201_HN_2_280_A8185"
1144230                            1         7.2 +j      3.1        7.8       0.9191
   TERMINAL TOTAL ......................     7.2 +j      3.1        7.8       0.9191
8185                               1        -7.2 +j     -3.1        7.8       0.9188
   TERMINAL TOTAL ......................    -7.2 +j     -3.1        7.8       0.9188

ELEMENT = "Line.MDV201_HN_2_794_ABC791"
796                                1      2394.5 +j   1072.3     2623.6       0.9127
796                                2      2623.0 +j   1112.5     2849.2       0.9206
796                                3      2345.9 +j   1022.6     2559.1       0.9167
   TERMINAL TOTAL ......................  7363.4 +j   3207.5     8031.7       0.9168
791                                1     -2393.1 +j  -1069.4     2621.2       0.9130
791                                2     -2621.9 +j  -1108.8     2846.7       0.9210
791                                3     -2345.6 +j  -1019.7     2557.7       0.9171
   TERMINAL TOTAL ...................... -7360.6 +j  -3197.9     8025.3       0.9172

ELEMENT = "Line.MDV201_HN_2_677_C62303"
62306                              3        36.4 +j     15.0       39.4       0.9250
   TERMINAL TOTAL ......................    36.4 +j     15.0       39.4       0.9250
62303                              3       -36.4 +j    -15.0       39.4       0.9249
   TERMINAL TOTAL ......................   -36.4 +j    -15.0       39.4       0.9249

ELEMENT = "Line.MDV201_100478FUSE"
14839                              3         5.1 +j      2.2        5.6       0.9204
   TERMINAL TOTAL ......................     5.1 +j      2.2        5.6       0.9204
100478                             3        -5.1 +j     -2.2        5.6       0.9204
   TERMINAL TOTAL ......................    -5.1 +j     -2.2        5.6       0.9204

ELEMENT = "Line.MDV201_HN_2_115_ABC58446"
58441                              1        38.8 +j     16.8       42.3       0.9172
58441                              2        22.1 +j      8.9       23.8       0.9284
58441                              3       151.3 +j     62.5      163.7       0.9243
   TERMINAL TOTAL ......................   212.2 +j     88.2      229.8       0.9234
58446                              1       -38.8 +j    -16.9       42.3       0.9172
58446                              2       -22.1 +j     -8.9       23.8       0.9282
58446                              3      -151.3 +j    -62.5      163.7       0.9243
   TERMINAL TOTAL ......................  -212.2 +j    -88.2      229.8       0.9234

ELEMENT = "Line.MDV201_HN_2_895_B52515"
112112                             2        90.2 +j     36.1       97.2       0.9284
   TERMINAL TOTAL ......................    90.2 +j     36.1       97.2       0.9284
52515                              2       -90.2 +j    -36.1       97.2       0.9284
   TERMINAL TOTAL ......................   -90.2 +j    -36.1       97.2       0.9284

ELEMENT = "Line.MDV201_98795FUSE"
846                                1         2.6 +j      1.1        2.9       0.9164
846                                2         2.6 +j      1.0        2.8       0.9274
846                                3         2.6 +j      1.1        2.9       0.9231
   TERMINAL TOTAL ......................     7.8 +j      3.3        8.5       0.9223
98795                              1        -2.6 +j     -1.1        2.9       0.9163
98795                              2        -2.6 +j     -1.0        2.8       0.9273
98795                              3        -2.6 +j     -1.1        2.9       0.9230
   TERMINAL TOTAL ......................    -7.8 +j     -3.3        8.5       0.9222

ELEMENT = "Line.MDV201_HN_2_246_B39602"
39623                              2        42.1 +j     16.9       45.4       0.9284
   TERMINAL TOTAL ......................    42.1 +j     16.9       45.4       0.9284
39602                              2       -42.1 +j    -16.9       45.4       0.9283
   TERMINAL TOTAL ......................   -42.1 +j    -16.9       45.4       0.9283

ELEMENT = "Line.MDV201_DA_8_149_ABC56778"
56777                              1        48.6 +j     20.7       52.8       0.9199
56777                              2       235.6 +j     93.8      253.6       0.9290
56777                              3       252.8 +j    104.6      273.5       0.9240
   TERMINAL TOTAL ......................   537.0 +j    219.1      580.0       0.9259
56778                              1       -48.6 +j    -20.8       52.9       0.9197
56778                              2      -235.5 +j    -93.8      253.5       0.9290
56778                              3      -252.7 +j   -104.5      273.5       0.9241
   TERMINAL TOTAL ......................  -536.9 +j   -219.0      579.9       0.9259

ELEMENT = "Line.MDV201_HN_2_083_ABC62239"
44586                              1       579.4 +j    253.7      632.5       0.9160
44586                              2       333.4 +j    133.3      359.0       0.9286
44586                              3       410.0 +j    169.2      443.5       0.9243
   TERMINAL TOTAL ......................  1322.7 +j    556.2     1434.9       0.9218
62239                              1      -579.3 +j   -253.6      632.4       0.9161
62239                              2      -333.4 +j   -133.2      359.0       0.9286
62239                              3      -409.9 +j   -169.2      443.4       0.9244
   TERMINAL TOTAL ...................... -1322.6 +j   -556.0     1434.7       0.9219

ELEMENT = "Line.MDV201_DA_8_145_ABC46393"
46394                              1        -0.0 +j     -0.0        0.0       0.0840
46394                              2         0.0 +j     -0.0        0.0      -0.0001
46394                              3         0.0 +j     -0.0        0.0      -0.0836
   TERMINAL TOTAL ......................    -0.0 +j     -0.0        0.0       0.0000
46393                              1         0.0 +j     -0.0        0.0      -0.0848
46393                              2         0.0 +j      0.0        0.0       0.9863
46393                              3         0.0 +j      0.0        0.0       0.7544
   TERMINAL TOTAL ......................     0.0 +j     -0.0        0.0      -0.9660

ELEMENT = "Line.MDV201_HN_2_729_B28246"
1144254                            2         9.3 +j      3.7       10.0       0.9284
   TERMINAL TOTAL ......................     9.3 +j      3.7       10.0       0.9284
28246                              2        -9.3 +j     -3.7       10.0       0.9283
   TERMINAL TOTAL ......................    -9.3 +j     -3.7       10.0       0.9283

ELEMENT = "Line.MDV201_HN_2_954_B39771"
14996                              2        24.1 +j      9.6       26.0       0.9286
   TERMINAL TOTAL ......................    24.1 +j      9.6       26.0       0.9286
39771                              2       -24.1 +j     -9.6       26.0       0.9285
   TERMINAL TOTAL ......................   -24.1 +j     -9.6       26.0       0.9285

ELEMENT = "Line.MDV201_108776FUSE"
74432                              1        13.8 +j      6.0       15.0       0.9160
   TERMINAL TOTAL ......................    13.8 +j      6.0       15.0       0.9160
108776                             1       -13.8 +j     -6.0       15.0       0.9160
   TERMINAL TOTAL ......................   -13.8 +j     -6.0       15.0       0.9160

ELEMENT = "Line.HN_2P028_SW"
1160489                            1        10.9 +j      4.9       12.0       0.9134
   TERMINAL TOTAL ......................    10.9 +j      4.9       12.0       0.9134
MDV201_795ELB_INT                  1       -10.9 +j     -4.9       12.0       0.9134
   TERMINAL TOTAL ......................   -10.9 +j     -4.9       12.0       0.9134

ELEMENT = "Line.MDV201_795ELB"
MDV201_795ELB_INT                  1        10.9 +j      4.9       12.0       0.9134
   TERMINAL TOTAL ......................    10.9 +j      4.9       12.0       0.9134
795                                1       -10.9 +j     -4.9       12.0       0.9134
   TERMINAL TOTAL ......................   -10.9 +j     -4.9       12.0       0.9134

ELEMENT = "Line.MDV201_1140227FUSE"
14879                              1        18.5 +j      8.0       20.1       0.9178
   TERMINAL TOTAL ......................    18.5 +j      8.0       20.1       0.9178
1140227                            1       -18.5 +j     -8.0       20.1       0.9178
   TERMINAL TOTAL ......................   -18.5 +j     -8.0       20.1       0.9178

ELEMENT = "Line.MDV201_HN_2_488_C8103"
8099                               3        57.5 +j     23.7       62.2       0.9245
   TERMINAL TOTAL ......................    57.5 +j     23.7       62.2       0.9245
8103                               3       -57.5 +j    -23.7       62.2       0.9244
   TERMINAL TOTAL ......................   -57.5 +j    -23.7       62.2       0.9244

ELEMENT = "Line.MDV201_DA_8_917_A56768"
1000983                            1       323.9 +j    140.6      353.1       0.9173
   TERMINAL TOTAL ......................   323.9 +j    140.6      353.1       0.9173
56768                              1      -323.9 +j   -140.6      353.1       0.9173
   TERMINAL TOTAL ......................  -323.9 +j   -140.6      353.1       0.9173

ELEMENT = "Line.MDV201_HN_2_029_ABC62262"
62265                              1       578.6 +j    252.5      631.3       0.9165
62265                              2       259.6 +j    103.7      279.5       0.9287
62265                              3       271.8 +j    112.4      294.1       0.9241
   TERMINAL TOTAL ......................  1110.0 +j    468.5     1204.8       0.9213
62262                              1      -578.4 +j   -252.2      631.0       0.9166
62262                              2      -259.6 +j   -103.6      279.5       0.9287
62262                              3      -271.7 +j   -112.4      294.1       0.9241
   TERMINAL TOTAL ...................... -1109.8 +j   -468.2     1204.5       0.9214

ELEMENT = "Line.MDV201_HN_2_955_B39752"
39771                              2        19.7 +j      7.8       21.2       0.9289
   TERMINAL TOTAL ......................    19.7 +j      7.8       21.2       0.9289
39752                              2       -19.7 +j     -7.8       21.2       0.9288
   TERMINAL TOTAL ......................   -19.7 +j     -7.8       21.2       0.9288

ELEMENT = "Line.MDV201_DA_8_215_B1017348"
1017350                            2        42.8 +j     17.1       46.1       0.9289
   TERMINAL TOTAL ......................    42.8 +j     17.1       46.1       0.9289
1017348                            2       -42.8 +j    -17.1       46.1       0.9288
   TERMINAL TOTAL ......................   -42.8 +j    -17.1       46.1       0.9288

ELEMENT = "Line.MDV201_DA_8_678_A56764"
56760                              1        41.3 +j     17.9       45.0       0.9180
   TERMINAL TOTAL ......................    41.3 +j     17.9       45.0       0.9180
56764                              1       -41.3 +j    -17.9       45.0       0.9179
   TERMINAL TOTAL ......................   -41.3 +j    -17.9       45.0       0.9179

ELEMENT = "Line.MDV201_HN_2_834_B39617"
39620                              2        51.5 +j     20.5       55.4       0.9289
   TERMINAL TOTAL ......................    51.5 +j     20.5       55.4       0.9289
39617                              2       -51.5 +j    -20.5       55.4       0.9288
   TERMINAL TOTAL ......................   -51.5 +j    -20.5       55.4       0.9288

ELEMENT = "Line.MDV201_HN_2_906_A39580"
39589                              1        14.7 +j      6.3       16.0       0.9184
   TERMINAL TOTAL ......................    14.7 +j      6.3       16.0       0.9184
39580                              1       -14.7 +j     -6.3       16.0       0.9183
   TERMINAL TOTAL ......................   -14.7 +j     -6.3       16.0       0.9183

ELEMENT = "Line.MDV201_DA_8_734_C74440"
74446                              3        55.5 +j     22.8       60.0       0.9247
   TERMINAL TOTAL ......................    55.5 +j     22.8       60.0       0.9247
74440                              3       -55.5 +j    -22.8       60.0       0.9247
   TERMINAL TOTAL ......................   -55.5 +j    -22.8       60.0       0.9247

ELEMENT = "Line.MDV201_DA_8_157_ABC58429"
58430                              1        25.9 +j     11.0       28.2       0.9205
58430                              2        10.6 +j      4.1       11.4       0.9329
58430                              3       250.2 +j    103.0      270.6       0.9247
   TERMINAL TOTAL ......................   286.8 +j    118.1      310.1       0.9247
58429                              1       -25.9 +j    -11.0       28.2       0.9203
58429                              2       -10.6 +j     -4.1       11.4       0.9323
58429                              3      -250.2 +j   -102.9      270.5       0.9248
   TERMINAL TOTAL ......................  -286.7 +j   -118.1      310.1       0.9247

ELEMENT = "Line.MDV201_HN_2_605_A21655"
28213                              1       107.7 +j     46.9      117.4       0.9168
   TERMINAL TOTAL ......................   107.7 +j     46.9      117.4       0.9168
21655                              1      -107.6 +j    -46.9      117.4       0.9168
   TERMINAL TOTAL ......................  -107.6 +j    -46.9      117.4       0.9168

ELEMENT = "Line.MDV201_HN_2_636_AC28249"
63666                              1       227.3 +j     98.2      247.6       0.9179
63666                              3        25.9 +j     10.6       28.0       0.9254
   TERMINAL TOTAL ......................   253.2 +j    108.9      275.6       0.9187
28249                              1      -227.2 +j    -98.2      247.5       0.9180
28249                              3       -25.9 +j    -10.6       28.0       0.9252
   TERMINAL TOTAL ......................  -253.2 +j   -108.8      275.6       0.9187

ELEMENT = "Line.MDV201_HN_2_705_ABC52524"
105409                             1       153.3 +j     65.9      166.8       0.9187
105409                             2       650.9 +j    265.2      702.8       0.9261
105409                             3       127.3 +j     52.6      137.7       0.9242
   TERMINAL TOTAL ......................   931.4 +j    383.7     1007.3       0.9246
52524                              1      -153.2 +j    -65.9      166.8       0.9186
52524                              2      -650.7 +j   -264.9      702.6       0.9262
52524                              3      -127.3 +j    -52.6      137.7       0.9242
   TERMINAL TOTAL ......................  -931.3 +j   -383.4     1007.1       0.9247

ELEMENT = "Line.MDV201_DA_8_928_A39733"
74424                              1       112.6 +j     48.8      122.7       0.9176
   TERMINAL TOTAL ......................   112.6 +j     48.8      122.7       0.9176
39733                              1      -112.6 +j    -48.8      122.7       0.9176
   TERMINAL TOTAL ......................  -112.6 +j    -48.8      122.7       0.9176

ELEMENT = "Line.MDV201_HN_2_383_ABC8113"
8111                               1       146.2 +j     63.6      159.4       0.9170
8111                               2         9.4 +j      3.7       10.1       0.9309
8111                               3        71.8 +j     29.5       77.6       0.9249
   TERMINAL TOTAL ......................   227.4 +j     96.8      247.1       0.9201
8113                               1      -146.2 +j    -63.6      159.4       0.9171
8113                               2        -9.4 +j     -3.7       10.1       0.9305
8113                               3       -71.8 +j    -29.5       77.6       0.9249
   TERMINAL TOTAL ......................  -227.4 +j    -96.8      247.1       0.9201

ELEMENT = "Line.MDV201_HN_2_803_B837"
836                                2       192.7 +j     76.9      207.5       0.9288
   TERMINAL TOTAL ......................   192.7 +j     76.9      207.5       0.9288
837                                2      -192.7 +j    -76.9      207.4       0.9288
   TERMINAL TOTAL ......................  -192.7 +j    -76.9      207.4       0.9288

ELEMENT = "Line.SW-HN_2_793_SW"
1023346                            1      2394.6 +j   1072.6     2623.9       0.9126
1023346                            2      2623.1 +j   1112.8     2849.4       0.9206
1023346                            3      2346.0 +j   1022.8     2559.3       0.9167
   TERMINAL TOTAL ......................  7363.8 +j   3208.2     8032.3       0.9168
MDV201_796USD_INT                  1     -2394.5 +j  -1072.4     2623.7       0.9126
MDV201_796USD_INT                  2     -2623.0 +j  -1112.6     2849.2       0.9206
MDV201_796USD_INT                  3     -2345.9 +j  -1022.7     2559.1       0.9167
   TERMINAL TOTAL ...................... -7363.4 +j  -3207.8     8031.8       0.9168

ELEMENT = "Line.MDV201_796USD"
MDV201_796USD_INT                  1      2394.5 +j   1072.4     2623.7       0.9126
MDV201_796USD_INT                  2      2623.0 +j   1112.6     2849.2       0.9206
MDV201_796USD_INT                  3      2345.9 +j   1022.7     2559.1       0.9167
   TERMINAL TOTAL ......................  7363.4 +j   3207.8     8031.8       0.9168
796                                1     -2394.5 +j  -1072.3     2623.6       0.9127
796                                2     -2623.0 +j  -1112.5     2849.2       0.9206
796                                3     -2345.9 +j  -1022.6     2559.1       0.9167
   TERMINAL TOTAL ...................... -7363.4 +j  -3207.5     8031.7       0.9168

ELEMENT = "Line.MDV201_HN_1_332_C28263"
28262                              3         4.9 +j      2.0        5.3       0.9249
   TERMINAL TOTAL ......................     4.9 +j      2.0        5.3       0.9249
28263                              3        -4.9 +j     -2.0        5.3       0.9245
   TERMINAL TOTAL ......................    -4.9 +j     -2.0        5.3       0.9245

ELEMENT = "Line.MDV201_HN_2_890_B52521"
52519                              2        31.9 +j     12.7       34.4       0.9292
   TERMINAL TOTAL ......................    31.9 +j     12.7       34.4       0.9292
52521                              2       -31.9 +j    -12.7       34.4       0.9291
   TERMINAL TOTAL ......................   -31.9 +j    -12.7       34.4       0.9291

ELEMENT = "Line.MDV201_HN_2_377_ABC28196"
28199                              1         5.1 +j      2.2        5.6       0.9171
28199                              2         6.8 +j      2.7        7.3       0.9289
28199                              3         4.7 +j      1.9        5.1       0.9255
   TERMINAL TOTAL ......................    16.7 +j      6.9       18.1       0.9244
28196                              1        -5.1 +j     -2.2        5.6       0.9163
28196                              2        -6.8 +j     -2.7        7.3       0.9283
28196                              3        -4.7 +j     -1.9        5.1       0.9247
   TERMINAL TOTAL ......................   -16.7 +j     -6.9       18.1       0.9237

ELEMENT = "Line.MDV201_HN_1_331_C28262"
28264                              3         4.9 +j      2.0        5.2       0.9255
   TERMINAL TOTAL ......................     4.9 +j      2.0        5.2       0.9255
28262                              3        -4.9 +j     -2.0        5.3       0.9249
   TERMINAL TOTAL ......................    -4.9 +j     -2.0        5.3       0.9249

ELEMENT = "Line.MDV201_HN_2_628_C52531"
28229                              3        28.6 +j     11.9       30.9       0.9232
   TERMINAL TOTAL ......................    28.6 +j     11.9       30.9       0.9232
52531                              3       -28.6 +j    -11.9       30.9       0.9231
   TERMINAL TOTAL ......................   -28.6 +j    -11.9       30.9       0.9231

ELEMENT = "Line.MDV201_HN_2_964_A14870"
14869                              1       106.3 +j     45.9      115.8       0.9181
   TERMINAL TOTAL ......................   106.3 +j     45.9      115.8       0.9181
14870                              1      -106.3 +j    -45.9      115.8       0.9181
   TERMINAL TOTAL ......................  -106.3 +j    -45.9      115.8       0.9181

ELEMENT = "Line.MDV201_DA_8_200_C46399"
46398                              3       202.0 +j     83.2      218.5       0.9247
   TERMINAL TOTAL ......................   202.0 +j     83.2      218.5       0.9247
46399                              3      -202.0 +j    -83.2      218.4       0.9247
   TERMINAL TOTAL ......................  -202.0 +j    -83.2      218.4       0.9247

ELEMENT = "Line.MDV201_106895FUSE"
62264                              2         7.5 +j      3.0        8.0       0.9289
   TERMINAL TOTAL ......................     7.5 +j      3.0        8.0       0.9289
106895                             2        -7.5 +j     -3.0        8.0       0.9289
   TERMINAL TOTAL ......................    -7.5 +j     -3.0        8.0       0.9289

ELEMENT = "Line.HN_2P054_SW"
1163442                            3         0.0 +j     -0.0        0.0      -0.5049
   TERMINAL TOTAL ......................     0.0 +j     -0.0        0.0      -0.5049
MDV201_1163443ELB_INT              3        -0.0 +j     -0.0        0.0       0.2604
   TERMINAL TOTAL ......................    -0.0 +j     -0.0        0.0       0.2604

ELEMENT = "Line.MDV201_1163443ELB"
MDV201_1163443ELB_INT              3        -0.0 +j     -0.0        0.0       0.7531
   TERMINAL TOTAL ......................    -0.0 +j     -0.0        0.0       0.7531
1163443                            3         0.0 +j      0.0        0.0       0.7531
   TERMINAL TOTAL ......................     0.0 +j      0.0        0.0       0.7531

ELEMENT = "Line.MDV201_DA_8_142_ABC6584"
99420                              1       512.0 +j    222.2      558.2       0.9173
99420                              2       254.5 +j    101.5      274.0       0.9289
99420                              3       266.4 +j    110.3      288.3       0.9240
   TERMINAL TOTAL ......................  1033.0 +j    434.0     1120.5       0.9219
6584                               1      -511.9 +j   -222.0      557.9       0.9175
6584                               2      -254.5 +j   -101.5      274.0       0.9289
6584                               3      -266.4 +j   -110.2      288.3       0.9240
   TERMINAL TOTAL ...................... -1032.8 +j   -433.7     1120.2       0.9220

ELEMENT = "Line.MDV201_1144249FUSE"
14828                              3       127.6 +j     52.6      138.0       0.9246
   TERMINAL TOTAL ......................   127.6 +j     52.6      138.0       0.9246
1144249                            3      -127.6 +j    -52.6      138.0       0.9246
   TERMINAL TOTAL ......................  -127.6 +j    -52.6      138.0       0.9246

ELEMENT = "Line.MDV201_HN_2_965_A63726"
14870                              1        89.0 +j     38.4       97.0       0.9181
   TERMINAL TOTAL ......................    89.0 +j     38.4       97.0       0.9181
63726                              1       -89.0 +j    -38.4       96.9       0.9181
   TERMINAL TOTAL ......................   -89.0 +j    -38.4       96.9       0.9181

ELEMENT = "Line.MDV201_C_1_410_A8131"
8134                               1        34.0 +j     14.9       37.1       0.9160
   TERMINAL TOTAL ......................    34.0 +j     14.9       37.1       0.9160
8131                               1       -34.0 +j    -14.9       37.1       0.9159
   TERMINAL TOTAL ......................   -34.0 +j    -14.9       37.1       0.9159

ELEMENT = "Line.MDV201_HN_2_463_C62234"
62232                              3        85.6 +j     35.2       92.6       0.9248
   TERMINAL TOTAL ......................    85.6 +j     35.2       92.6       0.9248
62234                              3       -85.6 +j    -35.2       92.6       0.9248
   TERMINAL TOTAL ......................   -85.6 +j    -35.2       92.6       0.9248

ELEMENT = "Line.MDV201_HN_2_133_ABC8083"
841                                1       620.9 +j    266.5      675.7       0.9189
841                                2       950.6 +j    383.1     1024.9       0.9275
841                                3       235.8 +j     97.8      255.2       0.9237
   TERMINAL TOTAL ......................  1807.3 +j    747.4     1955.7       0.9241
8083                               1      -620.6 +j   -266.4      675.3       0.9189
8083                               2      -950.2 +j   -382.6     1024.3       0.9276
8083                               3      -235.8 +j    -97.8      255.3       0.9237
   TERMINAL TOTAL ...................... -1806.5 +j   -746.8     1954.8       0.9242

ELEMENT = "Line.MDV201_HN_2_840_B52518"
39579                              2       298.6 +j    119.3      321.5       0.9286
   TERMINAL TOTAL ......................   298.6 +j    119.3      321.5       0.9286
52518                              2      -298.5 +j   -119.2      321.4       0.9287
   TERMINAL TOTAL ......................  -298.5 +j   -119.2      321.4       0.9287

ELEMENT = "Line.MDV201_HN_2_808_ABC783"
782                                1      2389.9 +j   1062.9     2615.6       0.9137
782                                2      2619.2 +j   1100.2     2840.9       0.9220
782                                3      2345.2 +j   1013.1     2554.7       0.9180
   TERMINAL TOTAL ......................  7354.4 +j   3176.2     8010.9       0.9180
783                                1     -2388.4 +j  -1060.3     2613.2       0.9140
783                                2     -2618.1 +j  -1096.4     2838.4       0.9224
783                                3     -2345.2 +j  -1010.3     2553.5       0.9184
   TERMINAL TOTAL ...................... -7351.7 +j  -3166.9     8004.8       0.9184

ELEMENT = "Line.MDV201_HN_2_608_A8133"
8132                               1         3.5 +j      1.5        3.8       0.9136
   TERMINAL TOTAL ......................     3.5 +j      1.5        3.8       0.9136
8133                               1        -3.5 +j     -1.5        3.8       0.9131
   TERMINAL TOTAL ......................    -3.5 +j     -1.5        3.8       0.9131


ELEMENT = "Line.MDV201_C_1P032_1160490"
MDV201_C_1P032_1160490_INT         1        -0.0 +j     -0.0        0.0       0.1181
   TERMINAL TOTAL ......................    -0.0 +j     -0.0        0.0       0.1181
1160490                            1         0.0 +j      0.0        0.0       0.1181
   TERMINAL TOTAL ......................     0.0 +j      0.0        0.0       0.1181

ELEMENT = "Line.MDV201_HN_2_077_C28274"
100477                             3        10.1 +j      4.2       10.9       0.9243
   TERMINAL TOTAL ......................    10.1 +j      4.2       10.9       0.9243
28274                              3       -10.1 +j     -4.2       10.9       0.9240
   TERMINAL TOTAL ......................   -10.1 +j     -4.2       10.9       0.9240

ELEMENT = "Line.MDV201_HN_2_711_A63676"
63677                              1        29.6 +j     12.8       32.2       0.9176
   TERMINAL TOTAL ......................    29.6 +j     12.8       32.2       0.9176
63676                              1       -29.6 +j    -12.8       32.2       0.9176
   TERMINAL TOTAL ......................   -29.6 +j    -12.8       32.2       0.9176

ELEMENT = "Line.MDV201_HN_2_923_C28266"
102184                             3         6.5 +j      2.7        7.1       0.9257
   TERMINAL TOTAL ......................     6.5 +j      2.7        7.1       0.9257
28266                              3        -6.5 +j     -2.7        7.1       0.9256
   TERMINAL TOTAL ......................    -6.5 +j     -2.7        7.1       0.9256

ELEMENT = "Line.MDV201_HN_21041_C39773"
39772                              3         7.7 +j      3.2        8.4       0.9249
   TERMINAL TOTAL ......................     7.7 +j      3.2        8.4       0.9249
39773                              3        -7.7 +j     -3.2        8.4       0.9244
   TERMINAL TOTAL ......................    -7.7 +j     -3.2        8.4       0.9244

ELEMENT = "Line.MDV201_HN_2_644_A28238"
28241                              1        98.9 +j     42.7      107.8       0.9180
   TERMINAL TOTAL ......................    98.9 +j     42.7      107.8       0.9180
28238                              1       -98.9 +j    -42.7      107.8       0.9180
   TERMINAL TOTAL ......................   -98.9 +j    -42.7      107.8       0.9180

ELEMENT = "Line.MDV201_1144260FUSE"
848                                2       355.0 +j    141.9      382.3       0.9286
   TERMINAL TOTAL ......................   355.0 +j    141.9      382.3       0.9286
1144260                            2      -355.0 +j   -141.9      382.3       0.9286
   TERMINAL TOTAL ......................  -355.0 +j   -141.9      382.3       0.9286

ELEMENT = "Line.MDV201_HN_2_539_C8098"
8095                               3        26.6 +j     11.0       28.7       0.9246
   TERMINAL TOTAL ......................    26.6 +j     11.0       28.7       0.9246
8098                               3       -26.6 +j    -11.0       28.7       0.9245
   TERMINAL TOTAL ......................   -26.6 +j    -11.0       28.7       0.9245

ELEMENT = "Line.MDV201_HN_2_800_B850"
849                                2       116.1 +j     46.5      125.1       0.9285
   TERMINAL TOTAL ......................   116.1 +j     46.5      125.1       0.9285
850                                2      -116.1 +j    -46.4      125.1       0.9285
   TERMINAL TOTAL ......................  -116.1 +j    -46.4      125.1       0.9285

ELEMENT = "Line.MDV201_HN_2_092_ABC63711"
63714                              1       580.0 +j    256.0      633.9       0.9149
63714                              2       440.9 +j    175.9      474.7       0.9288
63714                              3       936.8 +j    391.0     1015.1       0.9229
   TERMINAL TOTAL ......................  1957.6 +j    822.9     2123.5       0.9219
63711                              1      -579.9 +j   -255.6      633.7       0.9151
63711                              2      -440.7 +j   -175.9      474.5       0.9287
63711                              3      -936.0 +j   -389.8     1013.9       0.9231
   TERMINAL TOTAL ...................... -1956.5 +j   -821.3     2121.9       0.9221

ELEMENT = "Line.MDV201_HN_2P014_B1160485"
1160484                            2        76.0 +j     30.2       81.8       0.9292
   TERMINAL TOTAL ......................    76.0 +j     30.2       81.8       0.9292
1160485                            2       -76.0 +j    -30.3       81.8       0.9290
   TERMINAL TOTAL ......................   -76.0 +j    -30.3       81.8       0.9290

ELEMENT = "Line.MDV201_C_1_412_A8128"
8127                               1        30.0 +j     13.1       32.7       0.9161
   TERMINAL TOTAL ......................    30.0 +j     13.1       32.7       0.9161
8128                               1       -30.0 +j    -13.1       32.7       0.9160
   TERMINAL TOTAL ......................   -30.0 +j    -13.1       32.7       0.9160

ELEMENT = "Line.MDV201_HN_2_533_A8117"
8119                               1        16.6 +j      7.2       18.1       0.9180
   TERMINAL TOTAL ......................    16.6 +j      7.2       18.1       0.9180
8117                               1       -16.6 +j     -7.2       18.1       0.9179
   TERMINAL TOTAL ......................   -16.6 +j     -7.2       18.1       0.9179

ELEMENT = "Line.MDV201_HN_2_970_A63710"
63709                              1        20.7 +j      8.9       22.5       0.9182
   TERMINAL TOTAL ......................    20.7 +j      8.9       22.5       0.9182
63710                              1       -20.7 +j     -8.9       22.5       0.9181
   TERMINAL TOTAL ......................   -20.7 +j     -8.9       22.5       0.9181

ELEMENT = "Line.MDV201_C_1_400_A21653"
21654                              1        93.5 +j     40.7      101.9       0.9169
   TERMINAL TOTAL ......................    93.5 +j     40.7      101.9       0.9169
21653                              1       -93.5 +j    -40.7      101.9       0.9169
   TERMINAL TOTAL ......................   -93.5 +j    -40.7      101.9       0.9169

ELEMENT = "Line.MDV201_HN_2_124_C63703"
63708                              3        25.7 +j     10.7       27.9       0.9235
   TERMINAL TOTAL ......................    25.7 +j     10.7       27.9       0.9235
63703                              3       -25.7 +j    -10.7       27.9       0.9233
   TERMINAL TOTAL ......................   -25.7 +j    -10.7       27.9       0.9233

ELEMENT = "Line.MDV201_106254FUSE"
58411                              1         7.2 +j      3.1        7.8       0.9193
   TERMINAL TOTAL ......................     7.2 +j      3.1        7.8       0.9193
106254                             1        -7.2 +j     -3.1        7.8       0.9193
   TERMINAL TOTAL ......................    -7.2 +j     -3.1        7.8       0.9193

ELEMENT = "Line.MDV201_HN_1_380_C1012407"
1012405                            3        17.6 +j      7.2       19.1       0.9251
   TERMINAL TOTAL ......................    17.6 +j      7.2       19.1       0.9251
1012407                            3       -17.6 +j     -7.2       19.1       0.9250
   TERMINAL TOTAL ......................   -17.6 +j     -7.2       19.1       0.9250

ELEMENT = "Line.MDV201_HN_2_381_ABC1010731"
810                                1       146.3 +j     63.6      159.5       0.9170
810                                2         9.4 +j      3.7       10.1       0.9320
810                                3       142.3 +j     58.6      153.8       0.9247
   TERMINAL TOTAL ......................   297.9 +j    125.8      323.4       0.9212
1010731                            1      -146.2 +j    -63.6      159.5       0.9170
1010731                            2        -9.4 +j     -3.7       10.1       0.9316
1010731                            3      -142.2 +j    -58.6      153.8       0.9247
   TERMINAL TOTAL ......................  -297.9 +j   -125.8      323.4       0.9212

ELEMENT = "Line.MDV201_DA_8_732_C74453"
39745                              3        76.5 +j     31.5       82.7       0.9248
   TERMINAL TOTAL ......................    76.5 +j     31.5       82.7       0.9248
74453                              3       -76.5 +j    -31.5       82.7       0.9248
   TERMINAL TOTAL ......................   -76.5 +j    -31.5       82.7       0.9248

ELEMENT = "Line.MDV201_DA_8_144_ABC6582"
6580                               1       526.2 +j    228.4      573.7       0.9173
6580                               2       254.5 +j    101.5      274.0       0.9288
6580                               3       266.4 +j    110.3      288.4       0.9240
   TERMINAL TOTAL ......................  1047.2 +j    440.2     1136.0       0.9219
6582                               1      -526.1 +j   -228.3      573.5       0.9174
6582                               2      -254.5 +j   -101.5      274.0       0.9289
...